<?xml version="1.0" encoding="utf-8"?>
<!DOCTYPE population SYSTEM "http://www.matsim.org/files/dtd/population_v6.dtd">

<population>



<!-- ====================================================================== -->

	<person id="p_0_543">
		<plan selected="yes">
			<activity type="home" x="0.0" y="20000.0" end_time="09:09:03" >
			</activity>
			<leg mode="car">
			</leg>
			<activity type="work" x="30000.0" y="20000.0" end_time="17:09:03" >
			</activity>
			<leg mode="car">
			</leg>
			<activity type="home" x="0.0" y="20000.0" >
			</activity>
		</plan>

	</person>

<!-- ====================================================================== -->

	<person id="p_1000_-524">
		<plan selected="yes">
			<activity type="home" x="0.0" y="20000.0" end_time="08:51:16" >
			</activity>
			<leg mode="car">
			</leg>
			<activity type="work" x="30000.0" y="20000.0" end_time="16:51:16" >
			</activity>
			<leg mode="car">
			</leg>
			<activity type="home" x="0.0" y="20000.0" >
			</activity>
		</plan>

	</person>

<!-- ====================================================================== -->

	<person id="p_1001_75">
		<plan selected="yes">
			<activity type="home" x="0.0" y="20000.0" end_time="09:01:15" >
			</activity>
			<leg mode="pt">
			</leg>
			<activity type="work" x="30000.0" y="20000.0" end_time="17:01:15" >
			</activity>
			<leg mode="pt">
			</leg>
			<activity type="home" x="0.0" y="20000.0" >
			</activity>
		</plan>

	</person>

<!-- ====================================================================== -->

	<person id="p_1002_-126">
		<plan selected="yes">
			<activity type="home" x="0.0" y="20000.0" end_time="08:57:54" >
			</activity>
			<leg mode="car">
			</leg>
			<activity type="work" x="30000.0" y="20000.0" end_time="16:57:54" >
			</activity>
			<leg mode="car">
			</leg>
			<activity type="home" x="0.0" y="20000.0" >
			</activity>
		</plan>

	</person>

<!-- ====================================================================== -->

	<person id="p_1003_-426">
		<plan selected="yes">
			<activity type="home" x="0.0" y="20000.0" end_time="08:52:54" >
			</activity>
			<leg mode="pt">
			</leg>
			<activity type="work" x="30000.0" y="20000.0" end_time="16:52:54" >
			</activity>
			<leg mode="pt">
			</leg>
			<activity type="home" x="0.0" y="20000.0" >
			</activity>
		</plan>

	</person>

<!-- ====================================================================== -->

	<person id="p_1004_460">
		<plan selected="yes">
			<activity type="home" x="0.0" y="20000.0" end_time="09:07:40" >
			</activity>
			<leg mode="car">
			</leg>
			<activity type="work" x="30000.0" y="20000.0" end_time="17:07:40" >
			</activity>
			<leg mode="car">
			</leg>
			<activity type="home" x="0.0" y="20000.0" >
			</activity>
		</plan>

	</person>

<!-- ====================================================================== -->

	<person id="p_1005_-967">
		<plan selected="yes">
			<activity type="home" x="0.0" y="20000.0" end_time="08:43:53" >
			</activity>
			<leg mode="pt">
			</leg>
			<activity type="work" x="30000.0" y="20000.0" end_time="16:43:53" >
			</activity>
			<leg mode="pt">
			</leg>
			<activity type="home" x="0.0" y="20000.0" >
			</activity>
		</plan>

	</person>

<!-- ====================================================================== -->

	<person id="p_1006_-1199">
		<plan selected="yes">
			<activity type="home" x="0.0" y="20000.0" end_time="08:40:01" >
			</activity>
			<leg mode="car">
			</leg>
			<activity type="work" x="30000.0" y="20000.0" end_time="16:40:01" >
			</activity>
			<leg mode="car">
			</leg>
			<activity type="home" x="0.0" y="20000.0" >
			</activity>
		</plan>

	</person>

<!-- ====================================================================== -->

	<person id="p_1007_-544">
		<plan selected="yes">
			<activity type="home" x="0.0" y="20000.0" end_time="08:50:56" >
			</activity>
			<leg mode="pt">
			</leg>
			<activity type="work" x="30000.0" y="20000.0" end_time="16:50:56" >
			</activity>
			<leg mode="pt">
			</leg>
			<activity type="home" x="0.0" y="20000.0" >
			</activity>
		</plan>

	</person>

<!-- ====================================================================== -->

	<person id="p_1008_-271">
		<plan selected="yes">
			<activity type="home" x="0.0" y="20000.0" end_time="08:55:29" >
			</activity>
			<leg mode="car">
			</leg>
			<activity type="work" x="30000.0" y="20000.0" end_time="16:55:29" >
			</activity>
			<leg mode="car">
			</leg>
			<activity type="home" x="0.0" y="20000.0" >
			</activity>
		</plan>

	</person>

<!-- ====================================================================== -->

	<person id="p_1009_-151">
		<plan selected="yes">
			<activity type="home" x="0.0" y="20000.0" end_time="08:57:29" >
			</activity>
			<leg mode="pt">
			</leg>
			<activity type="work" x="30000.0" y="20000.0" end_time="16:57:29" >
			</activity>
			<leg mode="pt">
			</leg>
			<activity type="home" x="0.0" y="20000.0" >
			</activity>
		</plan>

	</person>

<!-- ====================================================================== -->

	<person id="p_100_-599">
		<plan selected="yes">
			<activity type="home" x="0.0" y="20000.0" end_time="08:50:01" >
			</activity>
			<leg mode="car">
			</leg>
			<activity type="work" x="30000.0" y="20000.0" end_time="16:50:01" >
			</activity>
			<leg mode="car">
			</leg>
			<activity type="home" x="0.0" y="20000.0" >
			</activity>
		</plan>

	</person>

<!-- ====================================================================== -->

	<person id="p_1010_-144">
		<plan selected="yes">
			<activity type="home" x="0.0" y="20000.0" end_time="08:57:36" >
			</activity>
			<leg mode="car">
			</leg>
			<activity type="work" x="30000.0" y="20000.0" end_time="16:57:36" >
			</activity>
			<leg mode="car">
			</leg>
			<activity type="home" x="0.0" y="20000.0" >
			</activity>
		</plan>

	</person>

<!-- ====================================================================== -->

	<person id="p_1011_182">
		<plan selected="yes">
			<activity type="home" x="0.0" y="20000.0" end_time="09:03:02" >
			</activity>
			<leg mode="pt">
			</leg>
			<activity type="work" x="30000.0" y="20000.0" end_time="17:03:02" >
			</activity>
			<leg mode="pt">
			</leg>
			<activity type="home" x="0.0" y="20000.0" >
			</activity>
		</plan>

	</person>

<!-- ====================================================================== -->

	<person id="p_1012_-941">
		<plan selected="yes">
			<activity type="home" x="0.0" y="20000.0" end_time="08:44:19" >
			</activity>
			<leg mode="car">
			</leg>
			<activity type="work" x="30000.0" y="20000.0" end_time="16:44:19" >
			</activity>
			<leg mode="car">
			</leg>
			<activity type="home" x="0.0" y="20000.0" >
			</activity>
		</plan>

	</person>

<!-- ====================================================================== -->

	<person id="p_1013_-641">
		<plan selected="yes">
			<activity type="home" x="0.0" y="20000.0" end_time="08:49:19" >
			</activity>
			<leg mode="pt">
			</leg>
			<activity type="work" x="30000.0" y="20000.0" end_time="16:49:19" >
			</activity>
			<leg mode="pt">
			</leg>
			<activity type="home" x="0.0" y="20000.0" >
			</activity>
		</plan>

	</person>

<!-- ====================================================================== -->

	<person id="p_1014_-1584">
		<plan selected="yes">
			<activity type="home" x="0.0" y="20000.0" end_time="08:33:36" >
			</activity>
			<leg mode="car">
			</leg>
			<activity type="work" x="30000.0" y="20000.0" end_time="16:33:36" >
			</activity>
			<leg mode="car">
			</leg>
			<activity type="home" x="0.0" y="20000.0" >
			</activity>
		</plan>

	</person>

<!-- ====================================================================== -->

	<person id="p_1015_1187">
		<plan selected="yes">
			<activity type="home" x="0.0" y="20000.0" end_time="09:19:47" >
			</activity>
			<leg mode="pt">
			</leg>
			<activity type="work" x="30000.0" y="20000.0" end_time="17:19:47" >
			</activity>
			<leg mode="pt">
			</leg>
			<activity type="home" x="0.0" y="20000.0" >
			</activity>
		</plan>

	</person>

<!-- ====================================================================== -->

	<person id="p_1016_-1161">
		<plan selected="yes">
			<activity type="home" x="0.0" y="20000.0" end_time="08:40:39" >
			</activity>
			<leg mode="car">
			</leg>
			<activity type="work" x="30000.0" y="20000.0" end_time="16:40:39" >
			</activity>
			<leg mode="car">
			</leg>
			<activity type="home" x="0.0" y="20000.0" >
			</activity>
		</plan>

	</person>

<!-- ====================================================================== -->

	<person id="p_1017_540">
		<plan selected="yes">
			<activity type="home" x="0.0" y="20000.0" end_time="09:09:00" >
			</activity>
			<leg mode="pt">
			</leg>
			<activity type="work" x="30000.0" y="20000.0" end_time="17:09:00" >
			</activity>
			<leg mode="pt">
			</leg>
			<activity type="home" x="0.0" y="20000.0" >
			</activity>
		</plan>

	</person>

<!-- ====================================================================== -->

	<person id="p_1018_547">
		<plan selected="yes">
			<activity type="home" x="0.0" y="20000.0" end_time="09:09:07" >
			</activity>
			<leg mode="car">
			</leg>
			<activity type="work" x="30000.0" y="20000.0" end_time="17:09:07" >
			</activity>
			<leg mode="car">
			</leg>
			<activity type="home" x="0.0" y="20000.0" >
			</activity>
		</plan>

	</person>

<!-- ====================================================================== -->

	<person id="p_1019_1113">
		<plan selected="yes">
			<activity type="home" x="0.0" y="20000.0" end_time="09:18:33" >
			</activity>
			<leg mode="pt">
			</leg>
			<activity type="work" x="30000.0" y="20000.0" end_time="17:18:33" >
			</activity>
			<leg mode="pt">
			</leg>
			<activity type="home" x="0.0" y="20000.0" >
			</activity>
		</plan>

	</person>

<!-- ====================================================================== -->

	<person id="p_101_1402">
		<plan selected="yes">
			<activity type="home" x="0.0" y="20000.0" end_time="09:23:22" >
			</activity>
			<leg mode="pt">
			</leg>
			<activity type="work" x="30000.0" y="20000.0" end_time="17:23:22" >
			</activity>
			<leg mode="pt">
			</leg>
			<activity type="home" x="0.0" y="20000.0" >
			</activity>
		</plan>

	</person>

<!-- ====================================================================== -->

	<person id="p_1020_-171">
		<plan selected="yes">
			<activity type="home" x="0.0" y="20000.0" end_time="08:57:09" >
			</activity>
			<leg mode="car">
			</leg>
			<activity type="work" x="30000.0" y="20000.0" end_time="16:57:09" >
			</activity>
			<leg mode="car">
			</leg>
			<activity type="home" x="0.0" y="20000.0" >
			</activity>
		</plan>

	</person>

<!-- ====================================================================== -->

	<person id="p_1021_-1067">
		<plan selected="yes">
			<activity type="home" x="0.0" y="20000.0" end_time="08:42:13" >
			</activity>
			<leg mode="pt">
			</leg>
			<activity type="work" x="30000.0" y="20000.0" end_time="16:42:13" >
			</activity>
			<leg mode="pt">
			</leg>
			<activity type="home" x="0.0" y="20000.0" >
			</activity>
		</plan>

	</person>

<!-- ====================================================================== -->

	<person id="p_1022_-1257">
		<plan selected="yes">
			<activity type="home" x="0.0" y="20000.0" end_time="08:39:03" >
			</activity>
			<leg mode="car">
			</leg>
			<activity type="work" x="30000.0" y="20000.0" end_time="16:39:03" >
			</activity>
			<leg mode="car">
			</leg>
			<activity type="home" x="0.0" y="20000.0" >
			</activity>
		</plan>

	</person>

<!-- ====================================================================== -->

	<person id="p_1023_-132">
		<plan selected="yes">
			<activity type="home" x="0.0" y="20000.0" end_time="08:57:48" >
			</activity>
			<leg mode="pt">
			</leg>
			<activity type="work" x="30000.0" y="20000.0" end_time="16:57:48" >
			</activity>
			<leg mode="pt">
			</leg>
			<activity type="home" x="0.0" y="20000.0" >
			</activity>
		</plan>

	</person>

<!-- ====================================================================== -->

	<person id="p_1024_-807">
		<plan selected="yes">
			<activity type="home" x="0.0" y="20000.0" end_time="08:46:33" >
			</activity>
			<leg mode="car">
			</leg>
			<activity type="work" x="30000.0" y="20000.0" end_time="16:46:33" >
			</activity>
			<leg mode="car">
			</leg>
			<activity type="home" x="0.0" y="20000.0" >
			</activity>
		</plan>

	</person>

<!-- ====================================================================== -->

	<person id="p_1025_-360">
		<plan selected="yes">
			<activity type="home" x="0.0" y="20000.0" end_time="08:54:00" >
			</activity>
			<leg mode="pt">
			</leg>
			<activity type="work" x="30000.0" y="20000.0" end_time="16:54:00" >
			</activity>
			<leg mode="pt">
			</leg>
			<activity type="home" x="0.0" y="20000.0" >
			</activity>
		</plan>

	</person>

<!-- ====================================================================== -->

	<person id="p_1026_-61">
		<plan selected="yes">
			<activity type="home" x="0.0" y="20000.0" end_time="08:58:59" >
			</activity>
			<leg mode="car">
			</leg>
			<activity type="work" x="30000.0" y="20000.0" end_time="16:58:59" >
			</activity>
			<leg mode="car">
			</leg>
			<activity type="home" x="0.0" y="20000.0" >
			</activity>
		</plan>

	</person>

<!-- ====================================================================== -->

	<person id="p_1027_-1159">
		<plan selected="yes">
			<activity type="home" x="0.0" y="20000.0" end_time="08:40:41" >
			</activity>
			<leg mode="pt">
			</leg>
			<activity type="work" x="30000.0" y="20000.0" end_time="16:40:41" >
			</activity>
			<leg mode="pt">
			</leg>
			<activity type="home" x="0.0" y="20000.0" >
			</activity>
		</plan>

	</person>

<!-- ====================================================================== -->

	<person id="p_1028_547">
		<plan selected="yes">
			<activity type="home" x="0.0" y="20000.0" end_time="09:09:07" >
			</activity>
			<leg mode="car">
			</leg>
			<activity type="work" x="30000.0" y="20000.0" end_time="17:09:07" >
			</activity>
			<leg mode="car">
			</leg>
			<activity type="home" x="0.0" y="20000.0" >
			</activity>
		</plan>

	</person>

<!-- ====================================================================== -->

	<person id="p_1029_978">
		<plan selected="yes">
			<activity type="home" x="0.0" y="20000.0" end_time="09:16:18" >
			</activity>
			<leg mode="pt">
			</leg>
			<activity type="work" x="30000.0" y="20000.0" end_time="17:16:18" >
			</activity>
			<leg mode="pt">
			</leg>
			<activity type="home" x="0.0" y="20000.0" >
			</activity>
		</plan>

	</person>

<!-- ====================================================================== -->

	<person id="p_102_-107">
		<plan selected="yes">
			<activity type="home" x="0.0" y="20000.0" end_time="08:58:13" >
			</activity>
			<leg mode="car">
			</leg>
			<activity type="work" x="30000.0" y="20000.0" end_time="16:58:13" >
			</activity>
			<leg mode="car">
			</leg>
			<activity type="home" x="0.0" y="20000.0" >
			</activity>
		</plan>

	</person>

<!-- ====================================================================== -->

	<person id="p_1030_-424">
		<plan selected="yes">
			<activity type="home" x="0.0" y="20000.0" end_time="08:52:56" >
			</activity>
			<leg mode="car">
			</leg>
			<activity type="work" x="30000.0" y="20000.0" end_time="16:52:56" >
			</activity>
			<leg mode="car">
			</leg>
			<activity type="home" x="0.0" y="20000.0" >
			</activity>
		</plan>

	</person>

<!-- ====================================================================== -->

	<person id="p_1031_137">
		<plan selected="yes">
			<activity type="home" x="0.0" y="20000.0" end_time="09:02:17" >
			</activity>
			<leg mode="pt">
			</leg>
			<activity type="work" x="30000.0" y="20000.0" end_time="17:02:17" >
			</activity>
			<leg mode="pt">
			</leg>
			<activity type="home" x="0.0" y="20000.0" >
			</activity>
		</plan>

	</person>

<!-- ====================================================================== -->

	<person id="p_1032_162">
		<plan selected="yes">
			<activity type="home" x="0.0" y="20000.0" end_time="09:02:42" >
			</activity>
			<leg mode="car">
			</leg>
			<activity type="work" x="30000.0" y="20000.0" end_time="17:02:42" >
			</activity>
			<leg mode="car">
			</leg>
			<activity type="home" x="0.0" y="20000.0" >
			</activity>
		</plan>

	</person>

<!-- ====================================================================== -->

	<person id="p_1033_-401">
		<plan selected="yes">
			<activity type="home" x="0.0" y="20000.0" end_time="08:53:19" >
			</activity>
			<leg mode="pt">
			</leg>
			<activity type="work" x="30000.0" y="20000.0" end_time="16:53:19" >
			</activity>
			<leg mode="pt">
			</leg>
			<activity type="home" x="0.0" y="20000.0" >
			</activity>
		</plan>

	</person>

<!-- ====================================================================== -->

	<person id="p_1034_-1170">
		<plan selected="yes">
			<activity type="home" x="0.0" y="20000.0" end_time="08:40:30" >
			</activity>
			<leg mode="car">
			</leg>
			<activity type="work" x="30000.0" y="20000.0" end_time="16:40:30" >
			</activity>
			<leg mode="car">
			</leg>
			<activity type="home" x="0.0" y="20000.0" >
			</activity>
		</plan>

	</person>

<!-- ====================================================================== -->

	<person id="p_1035_256">
		<plan selected="yes">
			<activity type="home" x="0.0" y="20000.0" end_time="09:04:16" >
			</activity>
			<leg mode="pt">
			</leg>
			<activity type="work" x="30000.0" y="20000.0" end_time="17:04:16" >
			</activity>
			<leg mode="pt">
			</leg>
			<activity type="home" x="0.0" y="20000.0" >
			</activity>
		</plan>

	</person>

<!-- ====================================================================== -->

	<person id="p_1036_-335">
		<plan selected="yes">
			<activity type="home" x="0.0" y="20000.0" end_time="08:54:25" >
			</activity>
			<leg mode="car">
			</leg>
			<activity type="work" x="30000.0" y="20000.0" end_time="16:54:25" >
			</activity>
			<leg mode="car">
			</leg>
			<activity type="home" x="0.0" y="20000.0" >
			</activity>
		</plan>

	</person>

<!-- ====================================================================== -->

	<person id="p_1037_-68">
		<plan selected="yes">
			<activity type="home" x="0.0" y="20000.0" end_time="08:58:52" >
			</activity>
			<leg mode="pt">
			</leg>
			<activity type="work" x="30000.0" y="20000.0" end_time="16:58:52" >
			</activity>
			<leg mode="pt">
			</leg>
			<activity type="home" x="0.0" y="20000.0" >
			</activity>
		</plan>

	</person>

<!-- ====================================================================== -->

	<person id="p_1038_170">
		<plan selected="yes">
			<activity type="home" x="0.0" y="20000.0" end_time="09:02:50" >
			</activity>
			<leg mode="car">
			</leg>
			<activity type="work" x="30000.0" y="20000.0" end_time="17:02:50" >
			</activity>
			<leg mode="car">
			</leg>
			<activity type="home" x="0.0" y="20000.0" >
			</activity>
		</plan>

	</person>

<!-- ====================================================================== -->

	<person id="p_1039_661">
		<plan selected="yes">
			<activity type="home" x="0.0" y="20000.0" end_time="09:11:01" >
			</activity>
			<leg mode="pt">
			</leg>
			<activity type="work" x="30000.0" y="20000.0" end_time="17:11:01" >
			</activity>
			<leg mode="pt">
			</leg>
			<activity type="home" x="0.0" y="20000.0" >
			</activity>
		</plan>

	</person>

<!-- ====================================================================== -->

	<person id="p_103_-352">
		<plan selected="yes">
			<activity type="home" x="0.0" y="20000.0" end_time="08:54:08" >
			</activity>
			<leg mode="pt">
			</leg>
			<activity type="work" x="30000.0" y="20000.0" end_time="16:54:08" >
			</activity>
			<leg mode="pt">
			</leg>
			<activity type="home" x="0.0" y="20000.0" >
			</activity>
		</plan>

	</person>

<!-- ====================================================================== -->

	<person id="p_1040_180">
		<plan selected="yes">
			<activity type="home" x="0.0" y="20000.0" end_time="09:03:00" >
			</activity>
			<leg mode="car">
			</leg>
			<activity type="work" x="30000.0" y="20000.0" end_time="17:03:00" >
			</activity>
			<leg mode="car">
			</leg>
			<activity type="home" x="0.0" y="20000.0" >
			</activity>
		</plan>

	</person>

<!-- ====================================================================== -->

	<person id="p_1041_3">
		<plan selected="yes">
			<activity type="home" x="0.0" y="20000.0" end_time="09:00:03" >
			</activity>
			<leg mode="pt">
			</leg>
			<activity type="work" x="30000.0" y="20000.0" end_time="17:00:03" >
			</activity>
			<leg mode="pt">
			</leg>
			<activity type="home" x="0.0" y="20000.0" >
			</activity>
		</plan>

	</person>

<!-- ====================================================================== -->

	<person id="p_1042_981">
		<plan selected="yes">
			<activity type="home" x="0.0" y="20000.0" end_time="09:16:21" >
			</activity>
			<leg mode="car">
			</leg>
			<activity type="work" x="30000.0" y="20000.0" end_time="17:16:21" >
			</activity>
			<leg mode="car">
			</leg>
			<activity type="home" x="0.0" y="20000.0" >
			</activity>
		</plan>

	</person>

<!-- ====================================================================== -->

	<person id="p_1043_96">
		<plan selected="yes">
			<activity type="home" x="0.0" y="20000.0" end_time="09:01:36" >
			</activity>
			<leg mode="pt">
			</leg>
			<activity type="work" x="30000.0" y="20000.0" end_time="17:01:36" >
			</activity>
			<leg mode="pt">
			</leg>
			<activity type="home" x="0.0" y="20000.0" >
			</activity>
		</plan>

	</person>

<!-- ====================================================================== -->

	<person id="p_1044_-526">
		<plan selected="yes">
			<activity type="home" x="0.0" y="20000.0" end_time="08:51:14" >
			</activity>
			<leg mode="car">
			</leg>
			<activity type="work" x="30000.0" y="20000.0" end_time="16:51:14" >
			</activity>
			<leg mode="car">
			</leg>
			<activity type="home" x="0.0" y="20000.0" >
			</activity>
		</plan>

	</person>

<!-- ====================================================================== -->

	<person id="p_1045_1255">
		<plan selected="yes">
			<activity type="home" x="0.0" y="20000.0" end_time="09:20:55" >
			</activity>
			<leg mode="pt">
			</leg>
			<activity type="work" x="30000.0" y="20000.0" end_time="17:20:55" >
			</activity>
			<leg mode="pt">
			</leg>
			<activity type="home" x="0.0" y="20000.0" >
			</activity>
		</plan>

	</person>

<!-- ====================================================================== -->

	<person id="p_1046_-410">
		<plan selected="yes">
			<activity type="home" x="0.0" y="20000.0" end_time="08:53:10" >
			</activity>
			<leg mode="car">
			</leg>
			<activity type="work" x="30000.0" y="20000.0" end_time="16:53:10" >
			</activity>
			<leg mode="car">
			</leg>
			<activity type="home" x="0.0" y="20000.0" >
			</activity>
		</plan>

	</person>

<!-- ====================================================================== -->

	<person id="p_1047_82">
		<plan selected="yes">
			<activity type="home" x="0.0" y="20000.0" end_time="09:01:22" >
			</activity>
			<leg mode="pt">
			</leg>
			<activity type="work" x="30000.0" y="20000.0" end_time="17:01:22" >
			</activity>
			<leg mode="pt">
			</leg>
			<activity type="home" x="0.0" y="20000.0" >
			</activity>
		</plan>

	</person>

<!-- ====================================================================== -->

	<person id="p_1048_-794">
		<plan selected="yes">
			<activity type="home" x="0.0" y="20000.0" end_time="08:46:46" >
			</activity>
			<leg mode="car">
			</leg>
			<activity type="work" x="30000.0" y="20000.0" end_time="16:46:46" >
			</activity>
			<leg mode="car">
			</leg>
			<activity type="home" x="0.0" y="20000.0" >
			</activity>
		</plan>

	</person>

<!-- ====================================================================== -->

	<person id="p_1049_30">
		<plan selected="yes">
			<activity type="home" x="0.0" y="20000.0" end_time="09:00:30" >
			</activity>
			<leg mode="pt">
			</leg>
			<activity type="work" x="30000.0" y="20000.0" end_time="17:00:30" >
			</activity>
			<leg mode="pt">
			</leg>
			<activity type="home" x="0.0" y="20000.0" >
			</activity>
		</plan>

	</person>

<!-- ====================================================================== -->

	<person id="p_104_-1015">
		<plan selected="yes">
			<activity type="home" x="0.0" y="20000.0" end_time="08:43:05" >
			</activity>
			<leg mode="car">
			</leg>
			<activity type="work" x="30000.0" y="20000.0" end_time="16:43:05" >
			</activity>
			<leg mode="car">
			</leg>
			<activity type="home" x="0.0" y="20000.0" >
			</activity>
		</plan>

	</person>

<!-- ====================================================================== -->

	<person id="p_1050_1052">
		<plan selected="yes">
			<activity type="home" x="0.0" y="20000.0" end_time="09:17:32" >
			</activity>
			<leg mode="car">
			</leg>
			<activity type="work" x="30000.0" y="20000.0" end_time="17:17:32" >
			</activity>
			<leg mode="car">
			</leg>
			<activity type="home" x="0.0" y="20000.0" >
			</activity>
		</plan>

	</person>

<!-- ====================================================================== -->

	<person id="p_1051_1040">
		<plan selected="yes">
			<activity type="home" x="0.0" y="20000.0" end_time="09:17:20" >
			</activity>
			<leg mode="pt">
			</leg>
			<activity type="work" x="30000.0" y="20000.0" end_time="17:17:20" >
			</activity>
			<leg mode="pt">
			</leg>
			<activity type="home" x="0.0" y="20000.0" >
			</activity>
		</plan>

	</person>

<!-- ====================================================================== -->

	<person id="p_1052_-1123">
		<plan selected="yes">
			<activity type="home" x="0.0" y="20000.0" end_time="08:41:17" >
			</activity>
			<leg mode="car">
			</leg>
			<activity type="work" x="30000.0" y="20000.0" end_time="16:41:17" >
			</activity>
			<leg mode="car">
			</leg>
			<activity type="home" x="0.0" y="20000.0" >
			</activity>
		</plan>

	</person>

<!-- ====================================================================== -->

	<person id="p_1053_-657">
		<plan selected="yes">
			<activity type="home" x="0.0" y="20000.0" end_time="08:49:03" >
			</activity>
			<leg mode="pt">
			</leg>
			<activity type="work" x="30000.0" y="20000.0" end_time="16:49:03" >
			</activity>
			<leg mode="pt">
			</leg>
			<activity type="home" x="0.0" y="20000.0" >
			</activity>
		</plan>

	</person>

<!-- ====================================================================== -->

	<person id="p_1054_-763">
		<plan selected="yes">
			<activity type="home" x="0.0" y="20000.0" end_time="08:47:17" >
			</activity>
			<leg mode="car">
			</leg>
			<activity type="work" x="30000.0" y="20000.0" end_time="16:47:17" >
			</activity>
			<leg mode="car">
			</leg>
			<activity type="home" x="0.0" y="20000.0" >
			</activity>
		</plan>

	</person>

<!-- ====================================================================== -->

	<person id="p_1055_681">
		<plan selected="yes">
			<activity type="home" x="0.0" y="20000.0" end_time="09:11:21" >
			</activity>
			<leg mode="pt">
			</leg>
			<activity type="work" x="30000.0" y="20000.0" end_time="17:11:21" >
			</activity>
			<leg mode="pt">
			</leg>
			<activity type="home" x="0.0" y="20000.0" >
			</activity>
		</plan>

	</person>

<!-- ====================================================================== -->

	<person id="p_1056_-214">
		<plan selected="yes">
			<activity type="home" x="0.0" y="20000.0" end_time="08:56:26" >
			</activity>
			<leg mode="car">
			</leg>
			<activity type="work" x="30000.0" y="20000.0" end_time="16:56:26" >
			</activity>
			<leg mode="car">
			</leg>
			<activity type="home" x="0.0" y="20000.0" >
			</activity>
		</plan>

	</person>

<!-- ====================================================================== -->

	<person id="p_1057_403">
		<plan selected="yes">
			<activity type="home" x="0.0" y="20000.0" end_time="09:06:43" >
			</activity>
			<leg mode="pt">
			</leg>
			<activity type="work" x="30000.0" y="20000.0" end_time="17:06:43" >
			</activity>
			<leg mode="pt">
			</leg>
			<activity type="home" x="0.0" y="20000.0" >
			</activity>
		</plan>

	</person>

<!-- ====================================================================== -->

	<person id="p_1058_-62">
		<plan selected="yes">
			<activity type="home" x="0.0" y="20000.0" end_time="08:58:58" >
			</activity>
			<leg mode="car">
			</leg>
			<activity type="work" x="30000.0" y="20000.0" end_time="16:58:58" >
			</activity>
			<leg mode="car">
			</leg>
			<activity type="home" x="0.0" y="20000.0" >
			</activity>
		</plan>

	</person>

<!-- ====================================================================== -->

	<person id="p_1059_919">
		<plan selected="yes">
			<activity type="home" x="0.0" y="20000.0" end_time="09:15:19" >
			</activity>
			<leg mode="pt">
			</leg>
			<activity type="work" x="30000.0" y="20000.0" end_time="17:15:19" >
			</activity>
			<leg mode="pt">
			</leg>
			<activity type="home" x="0.0" y="20000.0" >
			</activity>
		</plan>

	</person>

<!-- ====================================================================== -->

	<person id="p_105_-683">
		<plan selected="yes">
			<activity type="home" x="0.0" y="20000.0" end_time="08:48:37" >
			</activity>
			<leg mode="pt">
			</leg>
			<activity type="work" x="30000.0" y="20000.0" end_time="16:48:37" >
			</activity>
			<leg mode="pt">
			</leg>
			<activity type="home" x="0.0" y="20000.0" >
			</activity>
		</plan>

	</person>

<!-- ====================================================================== -->

	<person id="p_1060_-855">
		<plan selected="yes">